 30

      S         5.933784        -1.154168         -0.078783
      C         7.200243         0.004942         -0.172746
      C         6.714169         1.283057         -0.211785
      C         5.351427         1.300079         -0.174347
      C         4.656506         0.096161         -0.109532
      C         3.236484        -0.159205         -0.109982
      S         2.000826         0.917728         -0.052947
      C         0.723630        -0.211146         -0.147967
      C         1.276785        -1.474747         -0.199285
      C         2.726152        -1.392872         -0.165609
      H         0.862643        -2.389376         -0.234352
      H         3.282949        -2.431208         -0.097902
      H         7.992951        -0.578679         -0.125261
      H         7.341971         2.198253         -0.308422
      H         4.744837         2.215183         -0.031781
      C        -0.761776         0.220527         -0.154843
      C        -1.283056         1.509950         -0.186583
      C        -2.758758         1.564819         -0.225172
      C        -3.201516         0.275637         -0.209300
      S        -2.029490        -0.940318         -0.168129
      C        -4.721241        -0.061939         -0.199216
      C        -5.229165        -1.338094          0.034354
      C        -6.683542        -1.232715         -0.022759
      C        -7.127093        -0.015631         -0.040508
      S        -5.869028         1.073181         -0.138626
      H        -0.661174         2.465653         -0.274362
      H        -3.461212         2.395688         -0.227444
      H        -4.779964        -2.351447          0.095089
      H        -7.383040        -2.102732          0.163671
      H        -8.223455         0.354686         -0.016506
